Cleaned_Y158F_Mutant_no_internal_ligand_Adduct_ligand_PDB_0
 OpenBabel10092622373D

 65 70  0  0  0  0  0  0  0  0999 V2000
    2.2100  -33.1100    9.3950 P   0  0  0  0  0
    3.5660  -33.6790    9.1310 O   0  0  0  0  0
    1.0850  -33.2370    8.4080 O   0  0  0  0  0
    2.4930  -31.5670    9.8490 O   0  0  0  0  0
    1.3900  -30.3610   10.0530 P   0  0  0  0  0
    0.9570  -30.0440    8.6430 O   0  0  0  0  0
    0.4230  -30.6830   11.1490 O   0  0  0  0  0
    2.2890  -29.1950   10.6610 O   0  0  0  0  0
    2.4440  -27.9360   10.0330 C   0  0  0  0  0
    3.9450  -27.8140    9.9160 C   0  0  0  0  0
    4.5470  -28.5500   10.9740 O   0  0  0  0  0
    5.7590  -29.0300   10.4600 C   0  0  0  0  0
    5.3870  -29.5330    9.0590 C   0  0  0  0  0
    4.4800  -28.4190    8.5970 C   0  0  0  0  0
    6.4000  -30.1010   11.2210 N   0  0  0  0  0
    7.7170  -30.2350   11.4440 C   0  0  0  0  0
    7.8810  -31.2710   12.2540 N   0  0  0  0  0
    6.6530  -31.7530   12.5890 C   0  0  0  0  0
    8.7760  -31.6440   12.5720 H   0  0  0  0  0
    6.2190  -32.7940   13.3960 C   0  0  0  0  0
    5.7290  -30.9860   11.9440 C   0  0  0  0  0
    4.9070  -33.0320   13.4780 N   0  0  0  0  0
    4.0130  -32.2390   12.8430 C   0  0  0  0  0
    4.5740  -33.8240   14.0280 H   0  0  0  0  0
    4.4190  -31.2370   12.0720 N   0  0  0  0  0
    3.7360  -30.6600   11.5800 H   0  0  0  0  0
    7.0900  -33.5810   14.0700 N   0  0  0  0  0
    8.0580  -33.2820   14.1850 H   0  0  0  0  0
    6.7990  -34.4630   14.4900 H   0  0  0  0  0
    6.5470  -29.6880    8.2260 O   0  0  0  0  0
    6.3670  -30.1780    7.4320 H   0  0  0  0  0
    5.2620  -27.4340    7.9590 O   0  0  0  0  0
    5.8340  -27.8740    7.3400 H   0  0  0  0  0
    1.6310  -33.6370   10.7760 O   0  0  0  0  0
    0.4290  -34.3920   10.8780 C   0  0  0  0  0
    0.6290  -35.5080   11.9060 C   0  0  0  0  0
    1.8840  -36.1540   11.5260 O   0  0  0  0  0
    2.6290  -36.3200   12.6930 C   0  0  0  0  0
    2.2780  -35.0630   13.5120 C   0  0  0  0  0
    0.7840  -34.9760   13.3510 C   0  0  0  0  0
    4.0680  -36.3530   12.5760 N   0  0  0  0  0
    4.8330  -36.8280   13.5940 C   0  0  0  0  0
    6.1620  -36.9130   13.4180 C   0  0  0  0  0
    6.6370  -36.5040   12.1560 C   0  0  0  0  0
    5.8320  -36.1250   11.1140 C   0  0  0  0  0
    4.5200  -36.0400   11.3810 C   0  0  0  0  0
    7.0810  -37.3120   14.5810 C   0  0  0  0  0
    7.7460  -36.4620   15.2030 O   0  0  0  0  0
    7.3970  -38.5840   14.7450 N   0  0  0  0  0
    6.8520  -39.2800   14.2360 H   0  0  0  0  0
    8.0080  -38.8490   15.5170 H   0  0  0  0  0
    7.8850  -37.0010   11.9280 C   0  0  0  0  0
    7.4320  -37.2210   10.4800 O   0  0  0  0  0
    8.3100  -36.9620   10.2270 H   0  0  0  0  0
    9.1210  -36.3620   11.4450 C   0  0  0  0  0
    9.6870  -36.6990   10.2390 C   0  0  0  0  0
   10.7510  -35.9260    9.7990 C   0  0  0  0  0
   11.2030  -34.8540   10.4970 N   0  0  0  0  0
   10.6190  -34.4520   11.6480 C   0  0  0  0  0
   12.0070  -34.3360   10.1420 H   0  0  0  0  0
    9.5570  -35.1880   12.1260 C   0  0  0  0  0
    2.6360  -35.0450   14.9290 O   0  0  0  0  0
    3.3920  -35.5990   15.0850 H   0  0  0  0  0
    0.1980  -35.9170   14.3030 O   0  0  0  0  0
   -0.6830  -35.6460   14.5320 H   0  0  0  0  0
  3  1  2  0  0  0
  2  1  1  0  0  0
  1  4  1  0  0  0
  1 34  1  0  0  0
  4  5  1  0  0  0
  6  5  2  0  0  0
  5  8  1  0  0  0
  5  7  1  0  0  0
  9  8  1  0  0  0
 10  9  1  0  0  0
 14 10  1  0  0  0
 10 11  1  0  0  0
 12 11  1  0  0  0
 13 12  1  0  0  0
 12 15  1  0  0  0
 30 13  1  0  0  0
 14 13  1  0  0  0
 32 14  1  0  0  0
 15 16  1  0  0  0
 15 21  1  0  0  0
 16 17  2  0  0  0
 17 19  1  0  0  0
 17 18  1  0  0  0
 21 18  1  0  0  0
 18 20  2  0  0  0
 20 22  1  0  0  0
 20 27  1  0  0  0
 21 25  2  0  0  0
 23 22  2  0  0  0
 22 24  1  0  0  0
 25 23  1  0  0  0
 26 25  1  0  0  0
 27 28  1  0  0  0
 27 29  1  0  0  0
 31 30  1  0  0  0
 33 32  1  0  0  0
 34 35  1  0  0  0
 35 36  1  0  0  0
 37 36  1  0  0  0
 36 40  1  0  0  0
 37 38  1  0  0  0
 41 38  1  0  0  0
 38 39  1  0  0  0
 40 39  1  0  0  0
 39 62  1  0  0  0
 40 64  1  0  0  0
 46 41  1  0  0  0
 41 42  2  0  0  0
 43 42  1  0  0  0
 44 43  2  0  0  0
 43 47  1  0  0  0
 45 44  1  0  0  0
 52 44  1  0  0  0
 45 46  2  0  0  0
 47 49  1  0  0  0
 47 48  2  0  0  0
 50 49  1  0  0  0
 49 51  1  0  0  0
 53 52  1  0  0  0
 55 52  1  0  0  0
 54 53  1  0  0  0
 56 55  1  0  0  0
 55 61  2  0  0  0
 57 56  2  0  0  0
 57 58  1  0  0  0
 60 58  1  0  0  0
 58 59  2  0  0  0
 59 61  1  0  0  0
 62 63  1  0  0  0
 64 65  1  0  0  0
M  RAD 22   2   2   7   2   9   3  10   2  12   2  13   2  14   2  16   2  23   2  35   3  36   2  38   2  39   2  40   2  42   2  45   2  46   2  52   2  56   2  57   2  59   2  61   2
M  END
>  <Vina Binding Affinity>
-9.5

$$$$
