T2A_5OIN_Cleaned_PDB_Adduct_ligand_PDB_0
 OpenBabel10092621173D

 65 70  0  0  0  0  0  0  0  0999 V2000
  -22.3720   22.3640  -15.3730 P   0  0  0  0  0
  -21.6320   23.6280  -15.6690 O   0  0  0  0  0
  -23.0600   21.5710  -16.4480 O   0  0  0  0  0
  -23.3600   22.7480  -14.1300 O   0  0  0  0  0
  -24.9970   22.9170  -14.1630 P   0  0  0  0  0
  -25.2000   24.2000  -14.9310 O   0  0  0  0  0
  -25.6720   21.6330  -14.5310 O   0  0  0  0  0
  -25.3390   23.1040  -12.6190 O   0  0  0  0  0
  -26.5950   22.7660  -12.0620 C   0  0  0  0  0
  -27.1080   24.1040  -11.5830 C   0  0  0  0  0
  -25.9980   24.9600  -11.3410 O   0  0  0  0  0
  -26.4470   26.2540  -11.6350 C   0  0  0  0  0
  -27.2310   26.0800  -12.9430 C   0  0  0  0  0
  -27.9860   24.8070  -12.6450 C   0  0  0  0  0
  -25.4100   27.2690  -11.8080 N   0  0  0  0  0
  -25.4610   28.5360  -11.3650 C   0  0  0  0  0
  -24.2910   29.1000  -11.6330 N   0  0  0  0  0
  -23.4800   28.1610  -12.1930 C   0  0  0  0  0
  -24.0420   30.0720  -11.4510 H   0  0  0  0  0
  -22.1730   28.1760  -12.6540 C   0  0  0  0  0
  -24.1980   27.0050  -12.2740 C   0  0  0  0  0
  -21.6780   27.0610  -13.2010 N   0  0  0  0  0
  -22.4080   25.9230  -13.2470 C   0  0  0  0  0
  -20.7350   27.0690  -13.5900 H   0  0  0  0  0
  -23.6590   25.8980  -12.8030 N   0  0  0  0  0
  -24.2070   25.0400  -12.8640 H   0  0  0  0  0
  -21.4090   29.2900  -12.5880 N   0  0  0  0  0
  -21.4860   29.9110  -11.7830 H   0  0  0  0  0
  -20.7350   29.5210  -13.3180 H   0  0  0  0  0
  -28.1000   27.1960  -13.1930 O   0  0  0  0  0
  -28.0790   27.4830  -14.0980 H   0  0  0  0  0
  -29.2130   25.1410  -12.0360 O   0  0  0  0  0
  -29.8830   24.5770  -12.4040 H   0  0  0  0  0
  -21.4480   21.3310  -14.6020 O   0  0  0  0  0
  -21.4810   21.1620  -13.1880 C   0  0  0  0  0
  -20.0460   21.0540  -12.6670 C   0  0  0  0  0
  -19.2030   21.4690  -13.7870 O   0  0  0  0  0
  -18.2520   22.3540  -13.2780 C   0  0  0  0  0
  -19.0310   23.1120  -12.1860 C   0  0  0  0  0
  -19.7640   22.0040  -11.4780 C   0  0  0  0  0
  -17.7100   23.3500  -14.1710 N   0  0  0  0  0
  -16.4870   23.1780  -14.7370 C   0  0  0  0  0
  -16.0500   24.0890  -15.6220 C   0  0  0  0  0
  -16.9360   25.1510  -15.8900 C   0  0  0  0  0
  -18.2050   25.2450  -15.3820 C   0  0  0  0  0
  -18.5540   24.3100  -14.4850 C   0  0  0  0  0
  -14.6230   24.0140  -16.1830 C   0  0  0  0  0
  -14.3150   23.1870  -17.0620 O   0  0  0  0  0
  -13.6460   24.6240  -15.5390 N   0  0  0  0  0
  -13.8980   25.3020  -14.8200 H   0  0  0  0  0
  -12.6970   24.5740  -15.9120 H   0  0  0  0  0
  -16.6060   25.7680  -17.0590 C   0  0  0  0  0
  -18.0450   26.2960  -17.0800 O   0  0  0  0  0
  -17.9460   26.4370  -16.1460 H   0  0  0  0  0
  -16.1040   27.1230  -17.3450 C   0  0  0  0  0
  -15.5800   27.4590  -18.5700 C   0  0  0  0  0
  -15.2900   28.7970  -18.7920 C   0  0  0  0  0
  -15.5450   29.7550  -17.8660 N   0  0  0  0  0
  -16.1310   29.4670  -16.6820 C   0  0  0  0  0
  -15.2880   30.7210  -18.0690 H   0  0  0  0  0
  -16.4370   28.1510  -16.4150 C   0  0  0  0  0
  -18.2680   23.9080  -11.2270 O   0  0  0  0  0
  -17.3370   23.7590  -11.3410 H   0  0  0  0  0
  -18.8130   21.3890  -10.5540 O   0  0  0  0  0
  -19.0370   20.4760  -10.4130 H   0  0  0  0  0
  3  1  2  0  0  0
  2  1  1  0  0  0
  1 34  1  0  0  0
  1  4  1  0  0  0
  5  4  1  0  0  0
  6  5  2  0  0  0
  7  5  1  0  0  0
  5  8  1  0  0  0
  8  9  1  0  0  0
  9 10  1  0  0  0
 14 10  1  0  0  0
 10 11  1  0  0  0
 12 11  1  0  0  0
 13 12  1  0  0  0
 15 12  1  0  0  0
 30 13  1  0  0  0
 13 14  1  0  0  0
 14 32  1  0  0  0
 21 15  1  0  0  0
 15 16  1  0  0  0
 17 16  2  0  0  0
 18 17  1  0  0  0
 17 19  1  0  0  0
 20 18  2  0  0  0
 21 18  1  0  0  0
 22 20  1  0  0  0
 20 27  1  0  0  0
 25 21  2  0  0  0
 24 22  1  0  0  0
 23 22  2  0  0  0
 23 25  1  0  0  0
 26 25  1  0  0  0
 29 27  1  0  0  0
 27 28  1  0  0  0
 31 30  1  0  0  0
 33 32  1  0  0  0
 34 35  1  0  0  0
 35 36  1  0  0  0
 37 36  1  0  0  0
 36 40  1  0  0  0
 37 38  1  0  0  0
 41 38  1  0  0  0
 38 39  1  0  0  0
 39 40  1  0  0  0
 39 62  1  0  0  0
 40 64  1  0  0  0
 42 41  2  0  0  0
 46 41  1  0  0  0
 43 42  1  0  0  0
 47 43  1  0  0  0
 44 43  2  0  0  0
 52 44  1  0  0  0
 44 45  1  0  0  0
 45 46  2  0  0  0
 48 47  2  0  0  0
 47 49  1  0  0  0
 51 49  1  0  0  0
 49 50  1  0  0  0
 55 52  1  0  0  0
 53 52  1  0  0  0
 53 54  1  0  0  0
 56 55  1  0  0  0
 55 61  2  0  0  0
 57 56  2  0  0  0
 57 58  1  0  0  0
 60 58  1  0  0  0
 58 59  2  0  0  0
 59 61  1  0  0  0
 63 62  1  0  0  0
 64 65  1  0  0  0
M  RAD 22   2   2   7   2   9   3  10   2  12   2  13   2  14   2  16   2  23   2  35   3  36   2  38   2  39   2  40   2  42   2  45   2  46   2  52   2  56   2  57   2  59   2  61   2
M  END
>  <Vina Binding Affinity>
-10.0

$$$$
