I21V_2IE0_Cleaned_PDB_Adduct_ligand_PDB_0
 OpenBabel10092601083D

 65 70  0  0  0  0  0  0  0  0999 V2000
    0.5000  -33.2050   10.0770 P   0  0  0  0  0
   -0.1800  -33.4540   11.3840 O   0  0  0  0  0
    0.0930  -33.9160    8.8170 O   0  0  0  0  0
    2.0930  -33.3510   10.4090 O   0  0  0  0  0
    2.8830  -34.6790   10.9770 P   0  0  0  0  0
    1.7730  -35.6740   11.2030 O   0  0  0  0  0
    4.0970  -34.9860   10.1580 O   0  0  0  0  0
    3.4730  -34.1430   12.3570 O   0  0  0  0  0
    3.2710  -32.8210   12.8180 C   0  0  0  0  0
    4.6560  -32.2250   12.7100 C   0  0  0  0  0
    5.6040  -33.2830   12.6400 O   0  0  0  0  0
    6.6500  -32.8010   11.8420 C   0  0  0  0  0
    5.9310  -32.1060   10.6780 C   0  0  0  0  0
    4.8320  -31.3860   11.4230 C   0  0  0  0  0
    7.5790  -33.8040   11.3260 N   0  0  0  0  0
    8.7840  -33.5640   10.7840 C   0  0  0  0  0
    9.3500  -34.7360   10.5350 N   0  0  0  0  0
    8.5200  -35.7180   10.9800 C   0  0  0  0  0
   10.2550  -34.8780   10.0850 H   0  0  0  0  0
    8.5940  -37.1020   10.9950 C   0  0  0  0  0
    7.4160  -35.1090   11.4970 C   0  0  0  0  0
    7.5560  -37.7910   11.4810 N   0  0  0  0  0
    6.4830  -37.1550   12.0080 C   0  0  0  0  0
    7.5740  -38.8100   11.4550 H   0  0  0  0  0
    6.4060  -35.8300   12.0030 N   0  0  0  0  0
    5.5820  -35.3640   12.3810 H   0  0  0  0  0
    9.6700  -37.7620   10.5070 N   0  0  0  0  0
    9.5430  -38.6470   10.0160 H   0  0  0  0  0
   10.6140  -37.3870   10.5980 H   0  0  0  0  0
    6.8050  -31.2090    9.9740 O   0  0  0  0  0
    7.3160  -30.6600   10.5580 H   0  0  0  0  0
    5.3020  -30.1120   11.8010 O   0  0  0  0  0
    4.6020  -29.6710   12.2680 H   0  0  0  0  0
    0.4960  -31.6600    9.7190 O   0  0  0  0  0
    0.9860  -31.1460    8.4840 C   0  0  0  0  0
    1.1690  -29.6310    8.6150 C   0  0  0  0  0
    0.1710  -29.2120    9.5980 O   0  0  0  0  0
    0.8120  -28.3520   10.4900 C   0  0  0  0  0
    2.2300  -28.9480   10.5910 C   0  0  0  0  0
    2.5650  -29.2370    9.1520 C   0  0  0  0  0
    0.2980  -28.2710   11.8370 N   0  0  0  0  0
   -0.1890  -29.3760   12.4580 C   0  0  0  0  0
   -0.5880  -29.2760   13.7370 C   0  0  0  0  0
   -0.4420  -28.0030   14.3220 C   0  0  0  0  0
    0.1470  -26.9310   13.7040 C   0  0  0  0  0
    0.4920  -27.1070   12.4190 C   0  0  0  0  0
   -1.2720  -30.4580   14.4380 C   0  0  0  0  0
   -2.4690  -30.4070   14.7760 O   0  0  0  0  0
   -0.5270  -31.4230   14.9460 N   0  0  0  0  0
    0.4530  -31.4660   14.6680 H   0  0  0  0  0
   -0.9820  -32.2090   15.4120 H   0  0  0  0  0
   -0.4720  -28.0940   15.6810 C   0  0  0  0  0
    1.0600  -28.0590   15.6250 O   0  0  0  0  0
    0.9640  -27.8290   14.7090 H   0  0  0  0  0
   -0.4580  -27.0620   16.7330 C   0  0  0  0  0
   -0.0410  -25.7770   16.4820 C   0  0  0  0  0
   -0.2220  -24.8420   17.4900 C   0  0  0  0  0
   -0.8210  -25.1550   18.6670 N   0  0  0  0  0
   -1.3090  -26.3900   18.9130 C   0  0  0  0  0
   -0.9040  -24.4360   19.3860 H   0  0  0  0  0
   -1.1540  -27.3540   17.9420 C   0  0  0  0  0
    3.2770  -28.1300   11.2000 O   0  0  0  0  0
    4.0430  -28.6600   11.3850 H   0  0  0  0  0
    2.9980  -27.9750    8.5560 O   0  0  0  0  0
    2.3400  -27.6560    7.9480 H   0  0  0  0  0
  3  1  2  0  0  0
 34  1  1  0  0  0
  1  4  1  0  0  0
  1  2  1  0  0  0
  4  5  1  0  0  0
  7  5  2  0  0  0
  5  6  1  0  0  0
  5  8  1  0  0  0
  8  9  1  0  0  0
 10  9  1  0  0  0
 14 10  1  0  0  0
 11 10  1  0  0  0
 12 11  1  0  0  0
 13 12  1  0  0  0
 15 12  1  0  0  0
 30 13  1  0  0  0
 13 14  1  0  0  0
 14 32  1  0  0  0
 16 15  1  0  0  0
 15 21  1  0  0  0
 17 16  2  0  0  0
 19 17  1  0  0  0
 17 18  1  0  0  0
 18 20  2  0  0  0
 18 21  1  0  0  0
 27 20  1  0  0  0
 20 22  1  0  0  0
 21 25  2  0  0  0
 24 22  1  0  0  0
 22 23  2  0  0  0
 25 23  1  0  0  0
 25 26  1  0  0  0
 28 27  1  0  0  0
 27 29  1  0  0  0
 30 31  1  0  0  0
 32 33  1  0  0  0
 35 34  1  0  0  0
 35 36  1  0  0  0
 36 40  1  0  0  0
 36 37  1  0  0  0
 37 38  1  0  0  0
 38 39  1  0  0  0
 38 41  1  0  0  0
 40 39  1  0  0  0
 39 62  1  0  0  0
 64 40  1  0  0  0
 41 46  2  0  0  0
 41 42  1  0  0  0
 42 43  2  0  0  0
 43 44  1  0  0  0
 43 47  1  0  0  0
 45 44  2  0  0  0
 44 52  1  0  0  0
 46 45  1  0  0  0
 47 48  2  0  0  0
 47 49  1  0  0  0
 50 49  1  0  0  0
 49 51  1  0  0  0
 53 52  1  0  0  0
 52 55  1  0  0  0
 54 53  1  0  0  0
 56 55  2  0  0  0
 55 61  1  0  0  0
 56 57  1  0  0  0
 57 58  2  0  0  0
 58 59  1  0  0  0
 58 60  1  0  0  0
 61 59  2  0  0  0
 62 63  1  0  0  0
 65 64  1  0  0  0
M  RAD 22   2   2   6   2   9   3  10   2  12   2  13   2  14   2  16   2  23   2  35   3  36   2  38   2  39   2  40   2  42   2  45   2  46   2  52   2  56   2  57   2  59   2  61   2
M  END
>  <Vina Binding Affinity>
-10.5

$$$$
