D148G_4DQU_Cleaned_PDB_Adduct_ligand_PDB_0
 OpenBabel10092600573D

 65 70  0  0  0  0  0  0  0  0999 V2000
    0.7100   34.0200  -10.8680 P   0  0  0  0  0
   -0.3410   33.5870  -11.8380 O   0  0  0  0  0
    0.3870   34.8510   -9.6590 O   0  0  0  0  0
    1.8840   34.6710  -11.7990 O   0  0  0  0  0
    2.0930   36.2570  -12.1880 P   0  0  0  0  0
    0.8430   36.5940  -12.9620 O   0  0  0  0  0
    2.5600   37.0530  -11.0080 O   0  0  0  0  0
    3.3680   36.1950  -13.1400 O   0  0  0  0  0
    3.2780   35.9410  -14.5300 C   0  0  0  0  0
    4.7250   35.7390  -14.9170 C   0  0  0  0  0
    5.5520   36.2690  -13.8880 O   0  0  0  0  0
    6.7020   35.4690  -13.8760 C   0  0  0  0  0
    6.1540   34.0410  -13.9990 C   0  0  0  0  0
    5.0900   34.2430  -15.0510 C   0  0  0  0  0
    7.5480   35.5780  -12.6900 N   0  0  0  0  0
    7.9670   34.5610  -11.9200 C   0  0  0  0  0
    8.7910   35.0620  -11.0110 N   0  0  0  0  0
    8.9370   36.3940  -11.2500 C   0  0  0  0  0
    9.2390   34.5390  -10.2580 H   0  0  0  0  0
    9.6670   37.4030  -10.6420 C   0  0  0  0  0
    8.1610   36.6970  -12.3290 C   0  0  0  0  0
    9.5510   38.6480  -11.1140 N   0  0  0  0  0
    8.7890   38.9120  -12.2020 C   0  0  0  0  0
   10.0430   39.4100  -10.6480 H   0  0  0  0  0
    8.0900   37.9520  -12.7940 N   0  0  0  0  0
    7.5010   38.1680  -13.5980 H   0  0  0  0  0
   10.4640   37.1600   -9.5750 N   0  0  0  0  0
   10.4490   36.2420   -9.1300 H   0  0  0  0  0
   11.1020   37.8670   -9.2110 H   0  0  0  0  0
    7.1730   33.1160  -14.4090 O   0  0  0  0  0
    6.9570   32.2140  -14.1990 H   0  0  0  0  0
    5.6700   34.0540  -16.3220 O   0  0  0  0  0
    5.9320   34.9060  -16.6510 H   0  0  0  0  0
    1.5310   32.7740  -10.3270 O   0  0  0  0  0
    1.3110   32.1950   -9.0450 C   0  0  0  0  0
    1.5680   30.6880   -9.1300 C   0  0  0  0  0
    0.5520   30.1820  -10.0520 O   0  0  0  0  0
    1.1990   29.3230  -10.9420 C   0  0  0  0  0
    2.5770   29.9880  -11.1270 C   0  0  0  0  0
    2.9590   30.3470   -9.7160 C   0  0  0  0  0
    0.6310   29.1650  -12.2600 N   0  0  0  0  0
    0.0440   30.2160  -12.8900 C   0  0  0  0  0
   -0.4040   30.0490  -14.1450 C   0  0  0  0  0
   -0.2000   28.7700  -14.6990 C   0  0  0  0  0
    0.4860   27.7590  -14.0780 C   0  0  0  0  0
    0.8770   27.9980  -12.8170 C   0  0  0  0  0
   -1.1960   31.1600  -14.8470 C   0  0  0  0  0
   -2.3960   31.0120  -15.1460 O   0  0  0  0  0
   -0.5420   32.1670  -15.3980 N   0  0  0  0  0
    0.4400   32.2880  -15.1540 H   0  0  0  0  0
   -1.0690   32.9050  -15.8650 H   0  0  0  0  0
   -0.2970   28.8150  -16.0570 C   0  0  0  0  0
    1.2300   28.6790  -16.0780 O   0  0  0  0  0
    1.0900   27.8020  -16.4160 H   0  0  0  0  0
   -0.4060   27.7480  -17.0680 C   0  0  0  0  0
    0.0480   26.4740  -16.8290 C   0  0  0  0  0
   -0.2500   25.5040  -17.7740 C   0  0  0  0  0
   -0.9940   25.7750  -18.8770 N   0  0  0  0  0
   -1.5180   27.0010  -19.1010 C   0  0  0  0  0
   -1.1610   25.0330  -19.5560 H   0  0  0  0  0
   -1.2500   27.9970  -18.1900 C   0  0  0  0  0
    3.6380   29.2020  -11.7550 O   0  0  0  0  0
    3.8660   28.4600  -11.2080 H   0  0  0  0  0
    3.4840   29.1320   -9.0960 O   0  0  0  0  0
    2.8610   28.4200   -9.1900 H   0  0  0  0  0
  2  1  2  0  0  0
  4  1  1  0  0  0
  1 34  1  0  0  0
  1  3  1  0  0  0
  5  4  1  0  0  0
  8  5  1  0  0  0
  6  5  2  0  0  0
  5  7  1  0  0  0
  9  8  1  0  0  0
 10  9  1  0  0  0
 14 10  1  0  0  0
 10 11  1  0  0  0
 11 12  1  0  0  0
 13 12  1  0  0  0
 12 15  1  0  0  0
 14 13  1  0  0  0
 30 13  1  0  0  0
 32 14  1  0  0  0
 15 21  1  0  0  0
 15 16  1  0  0  0
 16 17  2  0  0  0
 18 17  1  0  0  0
 17 19  1  0  0  0
 21 18  1  0  0  0
 18 20  2  0  0  0
 22 20  1  0  0  0
 20 27  1  0  0  0
 25 21  2  0  0  0
 23 22  2  0  0  0
 22 24  1  0  0  0
 25 23  1  0  0  0
 26 25  1  0  0  0
 27 29  1  0  0  0
 27 28  1  0  0  0
 30 31  1  0  0  0
 33 32  1  0  0  0
 34 35  1  0  0  0
 36 35  1  0  0  0
 37 36  1  0  0  0
 40 36  1  0  0  0
 38 37  1  0  0  0
 41 38  1  0  0  0
 39 38  1  0  0  0
 62 39  1  0  0  0
 39 40  1  0  0  0
 40 64  1  0  0  0
 42 41  2  0  0  0
 46 41  1  0  0  0
 43 42  1  0  0  0
 47 43  1  0  0  0
 44 43  2  0  0  0
 52 44  1  0  0  0
 44 45  1  0  0  0
 45 46  2  0  0  0
 49 47  1  0  0  0
 48 47  2  0  0  0
 51 49  1  0  0  0
 49 50  1  0  0  0
 55 52  1  0  0  0
 53 52  1  0  0  0
 54 53  1  0  0  0
 61 55  2  0  0  0
 55 56  1  0  0  0
 57 56  2  0  0  0
 58 57  1  0  0  0
 60 58  1  0  0  0
 59 58  2  0  0  0
 59 61  1  0  0  0
 62 63  1  0  0  0
 65 64  1  0  0  0
M  RAD 22   3   2   7   2   9   3  10   2  12   2  13   2  14   2  16   2  23   2  35   3  36   2  38   2  39   2  40   2  42   2  45   2  46   2  52   2  56   2  57   2  59   2  61   2
M  END
>  <Vina Binding Affinity>
-11.1

$$$$
